*SPEF "1481-1998"
*DESIGN "floating_point_adder_sequential"
*DATE "Tue Dec 29 05:01:15 2015"
*VENDOR "Synopsys, Inc."
*PROGRAM "icc_shell"
*VERSION "G-2012.06-ICC-SP2"
*DESIGN_FLOW "PIN_CAP NONE"
*DIVIDER /
*DELIMITER :
*BUS_DELIMITER [ ]
*T_UNIT 1 NS
*C_UNIT 1 FF
*R_UNIT 1 OHM
*L_UNIT 1 HENRY

*NAME_MAP
*1 a[2]
*2 a[1]
*3 a[0]
*4 VDD
*5 VSS
*6 a[10]
*7 a[9]
*8 a[8]
*9 a[7]
*10 a[6]
*11 a[5]
*12 a[4]
*13 a[3]
*14 a[18]
*15 a[17]
*16 a[16]
*17 a[15]
*18 a[14]
*19 a[13]
*20 a[12]
*21 a[11]
*22 a[26]
*23 a[25]
*24 a[24]
*25 a[23]
*26 a[22]
*27 a[21]
*28 a[20]
*29 a[19]
*30 b[2]
*31 b[1]
*32 b[0]
*33 a[31]
*34 a[30]
*35 a[29]
*36 a[28]
*37 a[27]
*38 b[10]
*39 b[9]
*40 b[8]
*41 b[7]
*42 b[6]
*43 b[5]
*44 b[4]
*45 b[3]
*46 b[18]
*47 b[17]
*48 b[16]
*49 b[15]
*50 b[14]
*51 b[13]
*52 b[12]
*53 b[11]
*54 b[26]
*55 b[25]
*56 b[24]
*57 b[23]
*58 b[22]
*59 b[21]
*60 b[20]
*61 b[19]
*62 result[2]
*63 result[1]
*64 result[0]
*65 b[31]
*66 b[30]
*67 b[29]
*68 b[28]
*69 b[27]
*70 result[10]
*71 result[9]
*72 result[8]
*73 result[7]
*74 result[6]
*75 result[5]
*76 result[4]
*77 result[3]
*78 result[18]
*79 result[17]
*80 result[16]
*81 result[15]
*82 result[14]
*83 result[13]
*84 result[12]
*85 result[11]
*86 result[26]
*87 result[25]
*88 result[24]
*89 result[23]
*90 result[22]
*91 result[21]
*92 result[20]
*93 result[19]
*94 overflow
*95 rst
*96 clk
*97 result[31]
*98 result[30]
*99 result[29]
*100 result[28]
*101 result[27]
*102 exp_b\[0\]
*103 sub_63/U11
*104 sub_63/U10
*105 U770
*106 sub_63/n9
*107 sub_63/U1
*108 sub_63/n1
*109 sub_63/U2
*110 sub_63/carry\[1\]
*111 sub_63/U2_1
*112 exp_b\[1\]
*113 sub_63/U9
*114 U723
*115 sub_63/n8
*116 exp_b\[4\]
*117 sub_63/U8
*118 U666
*119 sub_63/n5
*120 sub_63/U2_4
*121 exp_b\[5\]
*122 sub_63/U7
*123 U665
*124 sub_63/n4
*125 sub_63/U2_5
*126 exp_b\[2\]
*127 sub_63/U6
*128 U664
*129 sub_63/n7
*130 sub_63/U2_2
*131 exp_b\[3\]
*132 sub_63/U5
*133 U663
*134 sub_63/n6
*135 sub_63/U2_3
*136 exp_b\[6\]
*137 sub_63/U4
*138 U662
*139 sub_63/n3
*140 sub_63/U2_6
*141 exp_b\[7\]
*142 sub_63/U3
*143 U638
*144 sub_63/n2
*145 sub_63/U2_7
*146 exp_a\[0\]
*147 U457
*148 U456
*149 exp_diff\[0\]
*150 srl_64/U155
*151 srl_64/U152
*152 srl_64/U19
*153 srl_64/U15
*154 n557
*155 add_96/U1_1_1
*156 sub_100/U2_1
*157 U618
*158 sub_63/carry\[2\]
*159 exp_diff\[1\]
*160 srl_64/U32
*161 n558
*162 add_96/U1_1_2
*163 sub_100/U2_2
*164 U617
*165 U543
*166 sub_63/carry\[3\]
*167 exp_diff\[2\]
*168 srl_64/U101
*169 srl_64/U1
*170 srl_64/U150
*171 srl_64/U148
*172 srl_64/U142
*173 srl_64/U129
*174 srl_64/U119
*175 srl_64/U113
*176 srl_64/U105
*177 exp_a\[3\]
*178 sub_100/U2_3
*179 U769
*180 U615
*181 U39
*182 sub_63/carry\[4\]
*183 exp_diff\[3\]
*184 srl_64/U52
*185 exp_a\[4\]
*186 sub_100/U2_4
*187 U768
*188 U611
*189 U38
*190 sub_63/carry\[5\]
*191 exp_diff\[4\]
*192 srl_64/U138
*193 srl_64/U4
*194 srl_64/U3
*195 n559
*196 add_96/U1_1_5
*197 sub_100/U2_5
*198 U616
*199 U603
*200 sub_63/carry\[6\]
*201 exp_diff\[5\]
*202 srl_64/U158
*203 n560
*204 add_96/U1_1_6
*205 sub_100/U2_6
*206 U623
*207 sub_63/carry\[7\]
*208 exp_diff\[6\]
*209 srl_64/U157
*210 srl_64/U5
*211 n561
*212 add_96/U2
*213 sub_100/U2_7
*214 U622
*215 exp_diff\[7\]
*216 srl_64/U86
*217 srl_64/U75
*218 srl_64/U69
*219 srl_64/U34
*220 srl_64/U31
*221 srl_64/n125
*222 srl_64/n4
*223 srl_64/n109
*224 srl_64/U136
*225 srl_64/U98
*226 srl_64/n29
*227 srl_64/U156
*228 srl_64/U109
*229 srl_64/U16
*230 srl_64/n28
*231 srl_64/U130
*232 srl_64/n88
*233 srl_64/U6
*234 srl_64/U153
*235 srl_64/U147
*236 srl_64/U132
*237 srl_64/U121
*238 srl_64/U95
*239 srl_64/U78
*240 srl_64/U72
*241 srl_64/n85
*242 srl_64/U154
*243 srl_64/U131
*244 srl_64/U88
*245 srl_64/U77
*246 srl_64/U71
*247 srl_64/U2
*248 srl_64/n39
*249 srl_64/U124
*250 srl_64/U116
*251 srl_64/U36
*252 srl_64/n40
*253 srl_64/U111
*254 srl_64/U37
*255 srl_64/n61
*256 srl_64/U59
*257 srl_64/U8
*258 srl_64/U151
*259 srl_64/U103
*260 srl_64/U82
*261 srl_64/n132
*262 srl_64/n87
*263 srl_64/U7
*264 mant_b\[18\]
*265 srl_64/U107
*266 srl_64/U48
*267 U654
*268 mant_b\[19\]
*269 srl_64/U120
*270 srl_64/U47
*271 U655
*272 srl_64/n78
*273 srl_64/U112
*274 srl_64/U65
*275 mant_b\[21\]
*276 U635
*277 mant_b\[22\]
*278 U646
*279 srl_64/n131
*280 srl_64/n25
*281 srl_64/U108
*282 srl_64/U93
*283 srl_64/U89
*284 srl_64/U81
*285 srl_64/U74
*286 srl_64/U144
*287 srl_64/U141
*288 srl_64/U134
*289 srl_64/U126
*290 srl_64/U118
*291 srl_64/n35
*292 srl_64/U46
*293 srl_64/n130
*294 srl_64/U35
*295 srl_64/n18
*296 srl_64/U85
*297 srl_64/n54
*298 srl_64/U149
*299 srl_64/U57
*300 srl_64/n3
*301 srl_64/U145
*302 srl_64/U127
*303 srl_64/U100
*304 srl_64/U79
*305 srl_64/n111
*306 srl_64/U137
*307 srl_64/U102
*308 srl_64/n92
*309 srl_64/U139
*310 srl_64/U91
*311 srl_64/U23
*312 srl_64/U22
*313 srl_64/U17
*314 mant_b\[6\]
*315 srl_64/U94
*316 srl_64/U80
*317 U644
*318 mant_b\[7\]
*319 srl_64/U73
*320 U636
*321 srl_64/n129
*322 srl_64/U27
*323 srl_64/n19
*324 srl_64/U146
*325 srl_64/n26
*326 mant_b\[5\]
*327 U645
*328 srl_64/n27
*329 srl_64/U115
*330 srl_64/U110
*331 srl_64/U92
*332 srl_64/U143
*333 srl_64/U140
*334 srl_64/U135
*335 srl_64/U125
*336 srl_64/U123
*337 srl_64/U117
*338 mant_b\[4\]
*339 srl_64/U40
*340 U637
*341 srl_64/n76
*342 srl_64/U64
*343 srl_64/n17
*344 srl_64/U67
*345 srl_64/U66
*346 srl_64/n91
*347 srl_64/n46
*348 srl_64/U44
*349 srl_64/n21
*350 srl_64/n45
*351 srl_64/U43
*352 srl_64/n128
*353 mant_b\[9\]
*354 srl_64/U45
*355 U653
*356 mant_b\[8\]
*357 srl_64/U26
*358 U630
*359 srl_64/n53
*360 srl_64/n90
*361 srl_64/n42
*362 srl_64/U38
*363 srl_64/n41
*364 srl_64/U42
*365 srl_64/n127
*366 mant_b\[13\]
*367 srl_64/U39
*368 U640
*369 mant_b\[12\]
*370 srl_64/U41
*371 U651
*372 srl_64/n55
*373 srl_64/n126
*374 srl_64/U53
*375 srl_64/n81
*376 srl_64/n12
*377 srl_64/n1
*378 srl_64/U70
*379 srl_64/n121
*380 srl_64/n83
*381 srl_64/U133
*382 srl_64/U87
*383 srl_64/U76
*384 srl_64/U54
*385 mant_b\[1\]
*386 srl_64/U49
*387 U658
*388 mant_b\[0\]
*389 U661
*390 srl_64/n124
*391 srl_64/n34
*392 srl_64/U51
*393 srl_64/n33
*394 srl_64/U50
*395 srl_64/n123
*396 srl_64/n122
*397 mant_b\[20\]
*398 U648
*399 srl_64/n120
*400 srl_64/n37
*401 srl_64/n38
*402 srl_64/n69
*403 srl_64/U61
*404 srl_64/U20
*405 srl_64/n112
*406 srl_64/n22
*407 srl_64/U104
*408 srl_64/n98
*409 srl_64/U122
*410 srl_64/U97
*411 srl_64/U30
*412 srl_64/n2
*413 srl_64/U128
*414 srl_64/U90
*415 srl_64/n11
*416 srl_64/U68
*417 srl_64/n110
*418 srl_64/U99
*419 srl_64/U9
*420 srl_64/n10
*421 srl_64/n50
*422 srl_64/U114
*423 srl_64/U56
*424 srl_64/n44
*425 srl_64/n43
*426 srl_64/n119
*427 mant_b\[11\]
*428 U649
*429 mant_b\[10\]
*430 U650
*431 srl_64/n64
*432 srl_64/U60
*433 srl_64/n118
*434 mant_b\[15\]
*435 U652
*436 mant_b\[14\]
*437 U639
*438 srl_64/n71
*439 srl_64/U12
*440 srl_64/n48
*441 srl_64/U62
*442 srl_64/U58
*443 srl_64/U106
*444 srl_64/U84
*445 srl_64/n52
*446 mant_temp_b\[10\]
*447 sub_66/U8
*448 add_66/U1_10
*449 srl_64/n117
*450 srl_64/U25
*451 srl_64/n23
*452 srl_64/n62
*453 srl_64/n89
*454 srl_64/U96
*455 srl_64/U29
*456 srl_64/n116
*457 srl_64/n57
*458 srl_64/n115
*459 mant_b\[16\]
*460 U660
*461 srl_64/n59
*462 mant_temp_b\[11\]
*463 sub_66/U9
*464 add_66/U1_11
*465 srl_64/n70
*466 srl_64/U18
*467 srl_64/n8
*468 srl_64/U63
*469 mant_temp_b\[12\]
*470 sub_66/U10
*471 add_66/U1_12
*472 srl_64/n114
*473 srl_64/n51
*474 srl_64/n74
*475 srl_64/n113
*476 mant_b\[17\]
*477 U659
*478 srl_64/n75
*479 mant_temp_b\[13\]
*480 sub_66/U11
*481 add_66/U1_13
*482 srl_64/n66
*483 srl_64/U24
*484 srl_64/n14
*485 srl_64/U83
*486 mant_temp_b\[14\]
*487 sub_66/U12
*488 add_66/U1_14
*489 mant_temp_b\[15\]
*490 sub_66/U13
*491 add_66/U1_15
*492 mant_temp_b\[16\]
*493 sub_66/U14
*494 add_66/U1_16
*495 srl_64/n49
*496 srl_64/n105
*497 mant_temp_b\[17\]
*498 sub_66/U15
*499 add_66/U1_17
*500 srl_64/n100
*501 mant_temp_b\[18\]
*502 sub_66/U16
*503 add_66/U1_18
*504 mant_temp_b\[19\]
*505 sub_66/U17
*506 add_66/U1_19
*507 srl_64/n108
*508 srl_64/U28
*509 srl_64/n24
*510 srl_64/n72
*511 srl_64/n107
*512 srl_64/n47
*513 srl_64/n106
*514 srl_64/U21
*515 srl_64/n13
*516 srl_64/n101
*517 srl_64/n32
*518 srl_64/n103
*519 srl_64/n36
*520 srl_64/n104
*521 srl_64/n102
*522 mant_temp_b\[1\]
*523 sub_66/U25
*524 add_66/U1_1
*525 mant_temp_b\[20\]
*526 sub_66/U18
*527 add_66/U1_20
*528 mant_temp_b\[21\]
*529 sub_66/U19
*530 add_66/U1_21
*531 mant_temp_b\[22\]
*532 sub_66/U4
*533 add_66/U1_22
*534 mant_temp_b\[23\]
*535 sub_66/U2
*536 add_66/U3
*537 add_66/U2
*538 srl_64/n31
*539 srl_64/n30
*540 srl_64/n99
*541 srl_64/n63
*542 srl_64/n79
*543 srl_64/n97
*544 srl_64/n96
*545 srl_64/n95
*546 srl_64/n16
*547 srl_64/n94
*548 mant_temp_b\[2\]
*549 sub_66/U24
*550 add_66/U1_2
*551 srl_64/n93
*552 srl_64/n56
*553 srl_64/n86
*554 srl_64/n84
*555 srl_64/n82
*556 srl_64/n15
*557 srl_64/n80
*558 mant_temp_b\[3\]
*559 sub_66/U23
*560 add_66/U1_3
*561 srl_64/n67
*562 srl_64/n60
*563 srl_64/n68
*564 srl_64/U10
*565 srl_64/n9
*566 srl_64/n77
*567 srl_64/U13
*568 srl_64/n5
*569 mant_temp_b\[4\]
*570 sub_66/U22
*571 add_66/U1_4
*572 srl_64/n73
*573 srl_64/U14
*574 srl_64/n6
*575 mant_temp_b\[5\]
*576 sub_66/U21
*577 add_66/U1_5
*578 srl_64/n20
*579 srl_64/n65
*580 mant_temp_b\[6\]
*581 sub_66/U20
*582 add_66/U1_6
*583 srl_64/n58
*584 srl_64/U11
*585 srl_64/n7
*586 mant_temp_b\[7\]
*587 sub_66/U5
*588 add_66/U1_7
*589 mant_temp_b\[8\]
*590 sub_66/U6
*591 add_66/U1_8
*592 mant_temp_b\[9\]
*593 sub_66/U7
*594 add_66/U1_9
*595 mant_b\[2\]
*596 U676
*597 mant_b\[3\]
*598 U667
*599 mant_temp_b\[0\]
*600 sub_66/U29
*601 sub_66/U26
*602 add_66/U1_0
*603 sub_66/n26
*604 sub_66/U28
*605 mant_a\[0\]
*606 sub_66/U27
*607 U629
*608 N124
*609 U624
*610 sub_66/n2
*611 sub_66/carry\[1\]
*612 sub_66/U2_1
*613 sub_66/n5
*614 sub_66/n4
*615 sub_66/U2_2
*616 sub_66/n3
*617 sub_66/U2_3
*618 sub_66/n11
*619 sub_66/U2_4
*620 sub_66/n12
*621 sub_66/U2_5
*622 sub_66/n14
*623 sub_66/U2_6
*624 sub_66/n24
*625 sub_66/U2_21
*626 sub_66/n23
*627 sub_66/U2_20
*628 sub_66/n19
*629 sub_66/U2_19
*630 sub_66/n18
*631 sub_66/U2_18
*632 sub_66/n22
*633 sub_66/U2_17
*634 sub_66/n21
*635 sub_66/U2_16
*636 sub_66/n10
*637 sub_66/U2_15
*638 sub_66/n15
*639 sub_66/U2_14
*640 sub_66/n9
*641 sub_66/U2_13
*642 sub_66/n8
*643 sub_66/U2_12
*644 sub_66/n7
*645 sub_66/U2_11
*646 sub_66/n6
*647 sub_66/U2_10
*648 sub_66/n17
*649 sub_66/U2_9
*650 sub_66/n16
*651 sub_66/U2_8
*652 sub_66/n13
*653 sub_66/U2_7
*654 sub_66/n20
*655 sub_66/U2_22
*656 sub_66/n25
*657 sub_66/U3
*658 sub_66/U1
*659 sub_66/carry\[23\]
*660 N147
*661 U520
*662 N148
*663 U370
*664 mant_a\[1\]
*665 U632
*666 sub_66/carry\[2\]
*667 N125
*668 U588
*669 mant_a\[2\]
*670 U641
*671 sub_66/carry\[3\]
*672 N126
*673 U583
*674 mant_a\[3\]
*675 U633
*676 sub_66/carry\[4\]
*677 N127
*678 U577
*679 mant_a\[4\]
*680 U642
*681 sub_66/carry\[5\]
*682 N128
*683 U582
*684 mant_a\[5\]
*685 U643
*686 sub_66/carry\[6\]
*687 N129
*688 U576
*689 mant_a\[6\]
*690 U634
*691 sub_66/carry\[7\]
*692 N130
*693 U585
*694 mant_a\[7\]
*695 U682
*696 sub_66/carry\[8\]
*697 N131
*698 U584
*699 mant_a\[8\]
*700 U678
*701 sub_66/carry\[9\]
*702 N132
*703 U581
*704 mant_a\[9\]
*705 U688
*706 sub_66/carry\[10\]
*707 N133
*708 U580
*709 mant_a\[10\]
*710 U683
*711 sub_66/carry\[11\]
*712 N134
*713 U578
*714 mant_a\[11\]
*715 U679
*716 sub_66/carry\[12\]
*717 N135
*718 U530
*719 mant_a\[12\]
*720 U684
*721 sub_66/carry\[13\]
*722 N136
*723 U526
*724 mant_a\[13\]
*725 U689
*726 sub_66/carry\[14\]
*727 N137
*728 U528
*729 mant_a\[14\]
*730 U680
*731 sub_66/carry\[15\]
*732 N138
*733 U529
*734 mant_a\[15\]
*735 U685
*736 sub_66/carry\[16\]
*737 N139
*738 U523
*739 mant_a\[16\]
*740 U681
*741 sub_66/carry\[17\]
*742 N140
*743 U524
*744 mant_a\[17\]
*745 U686
*746 sub_66/carry\[18\]
*747 N141
*748 U522
*749 mant_a\[18\]
*750 U694
*751 sub_66/carry\[19\]
*752 N142
*753 U532
*754 mant_a\[19\]
*755 U687
*756 sub_66/carry\[20\]
*757 N143
*758 U521
*759 mant_a\[20\]
*760 U692
*761 sub_66/carry\[21\]
*762 N144
*763 U527
*764 mant_a\[21\]
*765 U695
*766 sub_66/carry\[22\]
*767 N145
*768 U525
*769 mant_a\[22\]
*770 U693
*771 N146
*772 U533
*773 add_66/carry\[23\]
*774 add_66/U4
*775 add_66/n2
*776 add_66/U1
*777 N172
*778 add_66/n1
*779 N173
*780 add_66/carry\[1\]
*781 N149
*782 add_66/carry\[2\]
*783 N150
*784 add_66/carry\[3\]
*785 N151
*786 add_66/carry\[4\]
*787 N152
*788 add_66/carry\[5\]
*789 N153
*790 add_66/carry\[6\]
*791 N154
*792 add_66/carry\[7\]
*793 N155
*794 add_66/carry\[8\]
*795 N156
*796 add_66/carry\[9\]
*797 N157
*798 add_66/carry\[10\]
*799 N158
*800 add_66/carry\[11\]
*801 N159
*802 add_66/carry\[12\]
*803 N160
*804 add_66/carry\[13\]
*805 N161
*806 add_66/carry\[14\]
*807 N162
*808 add_66/carry\[15\]
*809 N163
*810 add_66/carry\[16\]
*811 N164
*812 add_66/carry\[17\]
*813 N165
*814 add_66/carry\[18\]
*815 N166
*816 add_66/carry\[19\]
*817 N167
*818 add_66/carry\[20\]
*819 N168
*820 add_66/carry\[21\]
*821 N169
*822 add_66/carry\[22\]
*823 N170
*824 N171
*825 add_96/carry\[7\]
*826 N280
*827 U537
*828 n416
*829 add_96/U1
*830 sub_100/U2_0
*831 U786
*832 U784
*833 N273
*834 U601
*835 add_96/carry\[2\]
*836 N274
*837 U540
*838 add_96/carry\[3\]
*839 add_96/U1_1_3
*840 N275
*841 U538
*842 add_96/carry\[4\]
*843 add_96/U1_1_4
*844 N276
*845 U535
*846 add_96/carry\[5\]
*847 N277
*848 U536
*849 add_96/carry\[6\]
*850 N278
*851 U534
*852 N279
*853 U539
*854 sll_99/n18
*855 sll_99/U48
*856 sll_99/U37
*857 sll_99/U33
*858 sll_99/U32
*859 sll_99/U31
*860 sll_99/U30
*861 sll_99/U29
*862 sll_99/U8
*863 shift\[5\]
*864 sll_99/U70
*865 sll_99/U15
*866 sub_100/U1
*867 U757
*868 shift\[6\]
*869 sub_100/U2
*870 U758
*871 sll_99/n33
*872 sll_99/U20
*873 shift\[0\]
*874 sll_99/U69
*875 sub_100/U7
*876 U606
*877 sll_99/n17
*878 sll_99/U66
*879 sll_99/U63
*880 sll_99/U58
*881 sll_99/U50
*882 sll_99/n32
*883 sll_99/U68
*884 sll_99/U25
*885 sll_99/U17
*886 sll_99/U3
*887 sll_99/n27
*888 sll_99/U7
*889 sll_99/U49
*890 sll_99/U24
*891 sll_99/U23
*892 sll_99/U22
*893 sll_99/temp_int_SH_0_
*894 sll_99/M1_0_3
*895 sll_99/M1_0_11
*896 sll_99/M1_0_17
*897 sll_99/M1_0_18
*898 sll_99/M1_0_20
*899 n555
*900 sll_99/U67
*901 sll_99/M1_0_1
*902 U766
*903 U596
*904 sll_99/n16
*905 sll_99/U19
*906 sll_99/ML_int_1__0_
*907 sll_99/U65
*908 sll_99/M1_1_2
*909 shift\[1\]
*910 sub_100/U6
*911 U619
*912 sll_99/n31
*913 sll_99/n15
*914 sll_99/U62
*915 sll_99/U61
*916 sll_99/U6
*917 sll_99/U60
*918 sll_99/U59
*919 sll_99/ML_int_2__0_
*920 sll_99/M1_2_4
*921 sll_99/ML_int_1__1_
*922 sll_99/U64
*923 sll_99/M1_1_3
*924 sll_99/ML_int_2__1_
*925 sll_99/M1_2_5
*926 shift\[2\]
*927 sub_100/U3
*928 U541
*929 sll_99/n30
*930 sll_99/n14
*931 sll_99/U5
*932 sll_99/U57
*933 sll_99/U56
*934 sll_99/U55
*935 sll_99/U54
*936 sll_99/U53
*937 sll_99/U52
*938 sll_99/U51
*939 sll_99/U28
*940 sll_99/ML_int_3__0_
*941 sll_99/M1_3_8
*942 sll_99/ML_int_3__1_
*943 sll_99/M1_3_9
*944 sll_99/ML_int_2__2_
*945 sll_99/M1_2_6
*946 sll_99/ML_int_3__2_
*947 sll_99/M1_3_10
*948 sll_99/ML_int_2__3_
*949 sll_99/M1_2_7
*950 sll_99/ML_int_3__3_
*951 sll_99/M1_3_11
*952 shift\[3\]
*953 sub_100/U4
*954 U613
*955 sll_99/n29
*956 sll_99/n13
*957 sll_99/U2
*958 sll_99/n26
*959 sll_99/U14
*960 sll_99/n25
*961 sll_99/U10
*962 sll_99/n24
*963 sll_99/U18
*964 sll_99/n23
*965 sll_99/U12
*966 sll_99/ML_int_3__4_
*967 sll_99/M1_3_12
*968 sll_99/n22
*969 sll_99/U4
*970 sll_99/ML_int_3__5_
*971 sll_99/M1_3_13
*972 sll_99/n21
*973 sll_99/U13
*974 sll_99/ML_int_3__6_
*975 sll_99/M1_3_14
*976 sll_99/n20
*977 sll_99/U11
*978 shift\[4\]
*979 sub_100/U5
*980 U609
*981 sll_99/n28
*982 sll_99/temp_int_SH_4_
*983 sll_99/M1_4_22
*984 sll_99/U21
*985 sll_99/M1_4_16
*986 sll_99/M1_4_17
*987 sll_99/M1_4_18
*988 sll_99/M1_4_19
*989 sll_99/M1_4_20
*990 sll_99/M1_4_21
*991 sll_99/n5
*992 sll_99/U41
*993 sll_99/U40
*994 sll_99/U39
*995 sll_99/U38
*996 sll_99/U36
*997 sll_99/U35
*998 sll_99/U34
*999 sll_99/U1
*1000 mant_temp3\[0\]
*1001 U479
*1002 sll_99/ML_int_4__10_
*1003 sll_99/U47
*1004 sll_99/n19
*1005 sll_99/U26
*1006 sll_99/U46
*1007 sll_99/U45
*1008 sll_99/U44
*1009 sll_99/U43
*1010 sll_99/U42
*1011 sll_99/U27
*1012 mant_temp3\[10\]
*1013 U499
*1014 sll_99/ML_int_4__11_
*1015 mant_temp3\[11\]
*1016 U497
*1017 sll_99/ML_int_4__12_
*1018 mant_temp3\[12\]
*1019 U556
*1020 U472
*1021 sll_99/ML_int_4__13_
*1022 mant_temp3\[13\]
*1023 U546
*1024 sll_99/ML_int_4__14_
*1025 mant_temp3\[14\]
*1026 U501
*1027 sll_99/ML_int_4__15_
*1028 sll_99/M1_3_15
*1029 mant_temp3\[15\]
*1030 U502
*1031 sll_99/ML_int_5__16_
*1032 mant_temp3\[16\]
*1033 U495
*1034 sll_99/ML_int_5__17_
*1035 mant_temp3\[17\]
*1036 U761
*1037 U575
*1038 sll_99/ML_int_5__18_
*1039 mant_temp3\[18\]
*1040 U760
*1041 sll_99/ML_int_5__19_
*1042 mant_temp3\[19\]
*1043 U755
*1044 mant_temp3\[1\]
*1045 U481
*1046 sll_99/ML_int_5__20_
*1047 mant_temp3\[20\]
*1048 U494
*1049 sll_99/ML_int_5__21_
*1050 mant_temp3\[21\]
*1051 U493
*1052 sll_99/ML_int_5__22_
*1053 mant_temp3\[22\]
*1054 U772
*1055 U771
*1056 mant_temp3\[2\]
*1057 U562
*1058 mant_temp3\[3\]
*1059 U564
*1060 mant_temp3\[4\]
*1061 U476
*1062 mant_temp3\[5\]
*1063 U480
*1064 mant_temp3\[6\]
*1065 U477
*1066 sll_99/ML_int_3__7_
*1067 mant_temp3\[7\]
*1068 U573
*1069 U467
*1070 sll_99/ML_int_4__8_
*1071 mant_temp3\[8\]
*1072 U552
*1073 sll_99/ML_int_4__9_
*1074 mant_temp3\[9\]
*1075 U554
*1076 sll_99/n3
*1077 sll_99/M1_0_5
*1078 sll_99/M1_0_6
*1079 sll_99/M1_0_8
*1080 sll_99/M1_0_21
*1081 sll_99/n2
*1082 sll_99/M1_1_15
*1083 sll_99/M1_1_17
*1084 sll_99/M1_1_18
*1085 sll_99/M1_1_21
*1086 sll_99/M1_1_5
*1087 sll_99/M1_1_7
*1088 sll_99/M1_1_9
*1089 sll_99/M1_1_11
*1090 sll_99/M1_1_13
*1091 sll_99/temp_int_SH_2_
*1092 sll_99/M1_2_18
*1093 sll_99/M1_2_19
*1094 sll_99/M1_2_20
*1095 sll_99/M1_2_21
*1096 sll_99/M1_2_22
*1097 sll_99/M1_2_10
*1098 sll_99/M1_2_11
*1099 sll_99/M1_2_12
*1100 sll_99/M1_2_13
*1101 sll_99/M1_2_14
*1102 sll_99/M1_2_15
*1103 sll_99/M1_2_16
*1104 sll_99/M1_2_17
*1105 sll_99/M1_2_8
*1106 sll_99/M1_2_9
*1107 sll_99/temp_int_SH_3_
*1108 sll_99/M1_3_22
*1109 sll_99/M1_3_16
*1110 sll_99/M1_3_17
*1111 sll_99/M1_3_18
*1112 sll_99/M1_3_19
*1113 sll_99/M1_3_20
*1114 sll_99/M1_3_21
*1115 n411
*1116 U449
*1117 sll_99/n10
*1118 sll_99/n1
*1119 sll_99/M1_0_9
*1120 sll_99/M1_0_12
*1121 sll_99/M1_0_14
*1122 sll_99/M1_0_15
*1123 sll_99/n12
*1124 sll_99/n7
*1125 sll_99/n9
*1126 sll_99/n6
*1127 sll_99/n11
*1128 sll_99/temp_int_SH_1_
*1129 sll_99/M1_1_16
*1130 sll_99/M1_1_19
*1131 sll_99/M1_1_20
*1132 sll_99/M1_1_22
*1133 sll_99/M1_1_4
*1134 sll_99/M1_1_6
*1135 sll_99/M1_1_8
*1136 sll_99/M1_1_10
*1137 sll_99/M1_1_12
*1138 sll_99/M1_1_14
*1139 sll_99/n8
*1140 sll_99/n4
*1141 sll_99/M1_0_22
*1142 sll_99/M1_0_2
*1143 sll_99/M1_0_4
*1144 sll_99/M1_0_7
*1145 sll_99/M1_0_10
*1146 sll_99/M1_0_13
*1147 sll_99/M1_0_16
*1148 sll_99/M1_0_19
*1149 n554
*1150 U765
*1151 U517
*1152 n553
*1153 U780
*1154 U519
*1155 sll_99/ML_int_1__2_
*1156 n552
*1157 U778
*1158 U518
*1159 sll_99/ML_int_1__3_
*1160 n551
*1161 U776
*1162 U513
*1163 sll_99/ML_int_1__4_
*1164 n550
*1165 U774
*1166 U507
*1167 sll_99/ML_int_1__5_
*1168 n549
*1169 U779
*1170 U515
*1171 sll_99/ML_int_1__6_
*1172 n548
*1173 U792
*1174 U510
*1175 sll_99/ML_int_1__7_
*1176 n547
*1177 U785
*1178 U506
*1179 sll_99/ML_int_1__8_
*1180 n546
*1181 U788
*1182 U512
*1183 sll_99/ML_int_1__9_
*1184 n545
*1185 U791
*1186 U509
*1187 sll_99/ML_int_1__10_
*1188 n544
*1189 U777
*1190 U720
*1191 U492
*1192 sll_99/ML_int_1__11_
*1193 n543
*1194 U787
*1195 U773
*1196 U489
*1197 sll_99/ML_int_1__12_
*1198 n542
*1199 U511
*1200 sll_99/ML_int_1__13_
*1201 n541
*1202 U753
*1203 U514
*1204 sll_99/ML_int_1__14_
*1205 n540
*1206 U614
*1207 U508
*1208 sll_99/ML_int_1__15_
*1209 n539
*1210 U762
*1211 U500
*1212 sll_99/ML_int_1__16_
*1213 n538
*1214 U496
*1215 U466
*1216 sll_99/ML_int_1__17_
*1217 n537
*1218 U487
*1219 U483
*1220 U482
*1221 sll_99/ML_int_1__18_
*1222 n536
*1223 U490
*1224 sll_99/ML_int_1__19_
*1225 n535
*1226 U621
*1227 U544
*1228 U486
*1229 sll_99/ML_int_1__20_
*1230 n534
*1231 U775
*1232 U488
*1233 sll_99/ML_int_1__21_
*1234 n526
*1235 U789
*1236 U719
*1237 U607
*1238 sll_99/ML_int_1__22_
*1239 sll_99/ML_int_2__4_
*1240 sll_99/ML_int_2__5_
*1241 sll_99/ML_int_2__6_
*1242 sll_99/ML_int_2__7_
*1243 sll_99/ML_int_2__8_
*1244 sll_99/ML_int_2__9_
*1245 sll_99/ML_int_2__10_
*1246 sll_99/ML_int_2__11_
*1247 sll_99/ML_int_2__12_
*1248 sll_99/ML_int_2__13_
*1249 sll_99/ML_int_2__14_
*1250 sll_99/ML_int_2__15_
*1251 sll_99/ML_int_2__16_
*1252 sll_99/ML_int_2__17_
*1253 sll_99/ML_int_2__18_
*1254 sll_99/ML_int_2__19_
*1255 sll_99/ML_int_2__20_
*1256 sll_99/ML_int_2__21_
*1257 sll_99/ML_int_2__22_
*1258 sll_99/ML_int_3__8_
*1259 sll_99/ML_int_3__9_
*1260 sll_99/ML_int_3__10_
*1261 sll_99/ML_int_3__11_
*1262 sll_99/ML_int_3__12_
*1263 sll_99/ML_int_3__13_
*1264 sll_99/ML_int_3__14_
*1265 sll_99/ML_int_3__15_
*1266 sll_99/ML_int_3__16_
*1267 sll_99/ML_int_3__17_
*1268 sll_99/ML_int_3__18_
*1269 sll_99/ML_int_3__19_
*1270 sll_99/ML_int_3__20_
*1271 sll_99/ML_int_3__21_
*1272 sll_99/ML_int_3__22_
*1273 sll_99/ML_int_4__16_
*1274 sll_99/ML_int_4__17_
*1275 sll_99/ML_int_4__18_
*1276 sll_99/ML_int_4__19_
*1277 sll_99/ML_int_4__20_
*1278 sll_99/ML_int_4__21_
*1279 sll_99/ML_int_4__22_
*1280 shift\[7\]
*1281 sub_100/U8
*1282 U605
*1283 sub_100/n8
*1284 sub_100/n5
*1285 sub_100/n4
*1286 sub_100/n1
*1287 sub_100/n2
*1288 sub_100/n3
*1289 sub_100/n7
*1290 sub_100/n6
*1291 sub_100/carry\[1\]
*1292 exp_temp2\[0\]
*1293 sub_100/carry\[2\]
*1294 exp_temp2\[1\]
*1295 sub_100/carry\[3\]
*1296 exp_temp2\[2\]
*1297 sub_100/carry\[4\]
*1298 exp_temp2\[3\]
*1299 sub_100/carry\[5\]
*1300 exp_temp2\[4\]
*1301 sub_100/carry\[6\]
*1302 exp_temp2\[5\]
*1303 sub_100/carry\[7\]
*1304 exp_temp2\[6\]
*1305 exp_temp2\[7\]
*1306 n484
*1307 U800
*1308 U798
*1309 n483
*1310 U448
*1311 reg_a\[30\]
*1312 U631
*1313 reg_a_reg_30_
*1314 n491
*1315 U702
*1316 reg_b_reg_30_
*1317 n485
*1318 U726
*1319 U725
*1320 reg_a\[23\]
*1321 U799
*1322 reg_a_reg_23_
*1323 n486
*1324 U709
*1325 reg_b_reg_24_
*1326 reg_a\[24\]
*1327 U754
*1328 reg_a_reg_24_
*1329 n480
*1330 U461
*1331 reg_b\[29\]
*1332 U647
*1333 U446
*1334 reg_b_reg_29_
*1335 n496
*1336 U699
*1337 reg_a_reg_29_
*1338 n426
*1339 U6
*1340 n228
*1341 U794
*1342 U368
*1343 n282
*1344 U555
*1345 n239
*1346 n244
*1347 U793
*1348 U553
*1349 n2730
*1350 U551
*1351 n245
*1352 n221
*1353 U790
*1354 n261
*1355 U781
*1356 n423
*1357 n227
*1358 U474
*1359 n266
*1360 U572
*1361 n246
*1362 U471
*1363 n236
*1364 U478
*1365 U470
*1366 n243
*1367 n263
*1368 n237
*1369 U473
*1370 n527
*1371 U756
*1372 n258
*1373 n222
*1374 U567
*1375 n220
*1376 n289
*1377 U691
*1378 U2
*1379 n288
*1380 U764
*1381 U763
*1382 n287
*1383 U14
*1384 n294
*1385 U783
*1386 n295
*1387 U675
*1388 n296
*1389 U40
*1390 n292
*1391 U759
*1392 n523
*1393 U782
*1394 U436
*1395 N108
*1396 reg_result_reg_21_
*1397 n2740
*1398 U566
*1399 n251
*1400 U369
*1401 n267
*1402 U561
*1403 U458
*1404 n235
*1405 n218
*1406 U612
*1407 n216
*1408 U610
*1409 n217
*1410 U542
*1411 n260
*1412 U565
*1413 n249
*1414 U608
*1415 U468
*1416 n269
*1417 U559
*1418 n270
*1419 n247
*1420 n240
*1421 U557
*1422 n238
*1423 n307
*1424 n524
*1425 U569
*1426 n184
*1427 reg_b_reg_23_
*1428 n1530
*1429 U708
*1430 n493
*1431 U444
*1432 reg_a_reg_26_
*1433 n488
*1434 U439
*1435 reg_b_reg_26_
*1436 n494
*1437 U445
*1438 reg_a_reg_27_
*1439 n489
*1440 U703
*1441 U452
*1442 reg_b_reg_27_
*1443 n272
*1444 U767
*1445 n268
*1446 U560
*1447 n250
*1448 n254
*1449 U450
*1450 n248
*1451 n234
*1452 U463
*1453 n213
*1454 U484
*1455 n498
*1456 U531
*1457 n297
*1458 U434
*1459 n298
*1460 U18
*1461 U16
*1462 U15
*1463 U17
*1464 U579
*1465 U10
*1466 n265
*1467 U498
*1468 U491
*1469 n255
*1470 U475
*1471 n306
*1472 U437
*1473 n520
*1474 U571
*1475 U670
*1476 U669
*1477 U668
*1478 U1
*1479 U3
*1480 U21
*1481 U25
*1482 U12
*1483 U674
*1484 U673
*1485 U672
*1486 U671
*1487 n293
*1488 U29
*1489 U690
*1490 U367
*1491 U366
*1492 n291
*1493 U718
*1494 N118
*1495 reg_result_reg_31_
*1496 n211
*1497 U604
*1498 n210
*1499 n212
*1500 U657
*1501 n521
*1502 U570
*1503 reg_b\[24\]
*1504 U462
*1505 n253
*1506 U13
*1507 n262
*1508 U547
*1509 n225
*1510 n226
*1511 n96
*1512 U45
*1513 reg_result_reg_16_
*1514 n98
*1515 U46
*1516 reg_result_reg_10_
*1517 n100
*1518 U47
*1519 reg_result_reg_11_
*1520 n102
*1521 U48
*1522 reg_result_reg_6_
*1523 n104
*1524 U49
*1525 reg_result_reg_8_
*1526 n106
*1527 U50
*1528 reg_result_reg_17_
*1529 n108
*1530 U51
*1531 reg_result_reg_20_
*1532 n110
*1533 U52
*1534 reg_result_reg_9_
*1535 n112
*1536 U53
*1537 reg_result_reg_12_
*1538 n114
*1539 U54
*1540 n116
*1541 U55
*1542 reg_result_reg_22_
*1543 n118
*1544 U56
*1545 reg_result_reg_18_
*1546 n120
*1547 U57
*1548 reg_result_reg_7_
*1549 n122
*1550 U58
*1551 reg_result_reg_23_
*1552 n124
*1553 U59
*1554 reg_result_reg_27_
*1555 n126
*1556 U60
*1557 reg_result_reg_24_
*1558 n128
*1559 U61
*1560 reg_result_reg_25_
*1561 n130
*1562 U62
*1563 reg_result_reg_26_
*1564 n132
*1565 U63
*1566 reg_result_reg_28_
*1567 n134
*1568 U64
*1569 reg_overflow_reg
*1570 n136
*1571 U65
*1572 reg_result_reg_29_
*1573 n138
*1574 U66
*1575 n140
*1576 U27
*1577 reg_result_reg_30_
*1578 reg_b\[30\]
*1579 n497
*1580 U698
*1581 n427
*1582 U8
*1583 U724
*1584 n88
*1585 U41
*1586 reg_result_reg_14_
*1587 reg_a\[25\]
*1588 U440
*1589 reg_a_reg_25_
*1590 reg_b\[25\]
*1591 U460
*1592 reg_b_reg_25_
*1593 n284
*1594 n1520
*1595 n252
*1596 n242
*1597 U620
*1598 n309
*1599 U656
*1600 n310
*1601 U37
*1602 n311
*1603 U717
*1604 n90
*1605 U42
*1606 reg_result_reg_13_
*1607 n422
*1608 U716
*1609 n421
*1610 U715
*1611 n92
*1612 U43
*1613 reg_result_reg_15_
*1614 n420
*1615 n94
*1616 U44
*1617 reg_result_reg_19_
*1618 n195
*1619 U713
*1620 reg_b_reg_12_
*1621 n194
*1622 reg_b_reg_13_
*1623 n193
*1624 reg_b_reg_14_
*1625 n192
*1626 reg_b_reg_15_
*1627 n335
*1628 U712
*1629 reg_b\[0\]
*1630 reg_b_reg_0_
*1631 reg_b\[11\]
*1632 reg_b_reg_11_
*1633 reg_b\[10\]
*1634 reg_b_reg_10_
*1635 n329
*1636 U599
*1637 n1640
*1638 U711
*1639 reg_a_reg_12_
*1640 n1630
*1641 reg_a_reg_13_
*1642 n1620
*1643 reg_a_reg_14_
*1644 n1610
*1645 reg_a_reg_15_
*1646 n326
*1647 U710
*1648 reg_a\[0\]
*1649 reg_a_reg_0_
*1650 reg_a\[11\]
*1651 reg_a_reg_11_
*1652 reg_a\[10\]
*1653 reg_a_reg_10_
*1654 n320
*1655 U600
*1656 n487
*1657 n334
*1658 U700
*1659 n492
*1660 n325
*1661 U696
*1662 reg_b\[19\]
*1663 U707
*1664 reg_b_reg_19_
*1665 reg_b\[18\]
*1666 reg_b_reg_18_
*1667 reg_b\[17\]
*1668 reg_b_reg_17_
*1669 reg_b\[16\]
*1670 reg_b_reg_16_
*1671 n327
*1672 reg_a\[19\]
*1673 U706
*1674 reg_a_reg_19_
*1675 reg_a\[18\]
*1676 reg_a_reg_18_
*1677 reg_a\[17\]
*1678 reg_a_reg_17_
*1679 reg_a\[16\]
*1680 reg_a_reg_16_
*1681 n318
*1682 reg_b\[22\]
*1683 U705
*1684 reg_b_reg_22_
*1685 reg_b\[21\]
*1686 reg_b_reg_21_
*1687 reg_b\[20\]
*1688 reg_b_reg_20_
*1689 reg_b\[1\]
*1690 reg_b_reg_1_
*1691 n328
*1692 reg_a\[22\]
*1693 U704
*1694 reg_a_reg_22_
*1695 reg_a\[21\]
*1696 reg_a_reg_21_
*1697 reg_a\[20\]
*1698 reg_a_reg_20_
*1699 reg_a\[1\]
*1700 reg_a_reg_1_
*1701 n319
*1702 n490
*1703 U451
*1704 reg_b_reg_28_
*1705 n178
*1706 n205
*1707 reg_b_reg_2_
*1708 n333
*1709 n204
*1710 reg_b_reg_3_
*1711 n203
*1712 reg_b_reg_4_
*1713 n202
*1714 reg_b_reg_5_
*1715 n332
*1716 n201
*1717 U701
*1718 reg_b_reg_6_
*1719 n200
*1720 reg_b_reg_7_
*1721 n199
*1722 reg_b_reg_8_
*1723 n198
*1724 reg_b_reg_9_
*1725 n331
*1726 n330
*1727 n495
*1728 U447
*1729 reg_a_reg_28_
*1730 n174
*1731 reg_a_reg_2_
*1732 n324
*1733 n1730
*1734 reg_a_reg_3_
*1735 n1720
*1736 reg_a_reg_4_
*1737 n1710
*1738 reg_a_reg_5_
*1739 n323
*1740 n1700
*1741 U697
*1742 reg_a_reg_6_
*1743 n1690
*1744 reg_a_reg_7_
*1745 n1680
*1746 reg_a_reg_8_
*1747 n1670
*1748 reg_a_reg_9_
*1749 n322
*1750 n321
*1751 n1550
*1752 n186
*1753 n1580
*1754 n189
*1755 n1540
*1756 n86
*1757 n185
*1758 n1560
*1759 n87
*1760 n187
*1761 reg_a\[31\]
*1762 reg_a_reg_31_
*1763 reg_b\[31\]
*1764 reg_b_reg_31_
*1765 n1570
*1766 n188
*1767 n1590
*1768 n190
*1769 n1660
*1770 n197
*1771 n1600
*1772 n191
*1773 n1650
*1774 n196
*1775 n336
*1776 U677
*1777 n337
*1778 n283
*1779 U9
*1780 N111
*1781 N116
*1782 N112
*1783 N117
*1784 n312
*1785 N114
*1786 n313
*1787 N113
*1788 n314
*1789 N115
*1790 n299
*1791 N110
*1792 n207
*1793 n176
*1794 n206
*1795 n175
*1796 reg_a\[28\]
*1797 reg_b\[28\]
*1798 reg_a\[29\]
*1799 n209
*1800 n79
*1801 U550
*1802 U32
*1803 n80
*1804 U574
*1805 U33
*1806 n81
*1807 U34
*1808 n82
*1809 U36
*1810 U35
*1811 n256
*1812 n219
*1813 n229
*1814 n241
*1815 n525
*1816 n223
*1817 n224
*1818 n529
*1819 n214
*1820 n215
*1821 n530
*1822 n259
*1823 n290
*1824 n286
*1825 N119
*1826 n499
*1827 U597
*1828 n317
*1829 U598
*1830 n316
*1831 n315
*1832 n83
*1833 n84
*1834 n85
*1835 n71
*1836 U26
*1837 n73
*1838 U398
*1839 U432
*1840 U382
*1841 U426
*1842 U383
*1843 U425
*1844 U403
*1845 U399
*1846 U401
*1847 U433
*1848 U402
*1849 U400
*1850 U424
*1851 U404
*1852 U405
*1853 n74
*1854 U409
*1855 U408
*1856 U410
*1857 U391
*1858 U407
*1859 U392
*1860 U393
*1861 U413
*1862 U411
*1863 U423
*1864 U421
*1865 U420
*1866 U422
*1867 U390
*1868 U412
*1869 U417
*1870 U419
*1871 n75
*1872 U28
*1873 n76
*1874 U30
*1875 n2760
*1876 U558
*1877 n2750
*1878 U563
*1879 n285
*1880 U548
*1881 U545
*1882 U549
*1883 n519
*1884 n300
*1885 N104
*1886 n509
*1887 N94
*1888 n271
*1889 n77
*1890 N105
*1891 n2790
*1892 n78
*1893 U31
*1894 N106
*1895 N109
*1896 n508
*1897 U435
*1898 N93
*1899 n507
*1900 N92
*1901 reg_result_reg_5_
*1902 n506
*1903 N91
*1904 reg_result_reg_4_
*1905 n505
*1906 N90
*1907 reg_result_reg_3_
*1908 n504
*1909 N89
*1910 reg_result_reg_2_
*1911 n502
*1912 U438
*1913 N87
*1914 reg_result_reg_0_
*1915 n513
*1916 N98
*1917 n503
*1918 N88
*1919 reg_result_reg_1_
*1920 n512
*1921 N97
*1922 n514
*1923 N99
*1924 n511
*1925 N96
*1926 n510
*1927 N95
*1928 n2780
*1929 n522
*1930 N107
*1931 n257
*1932 n518
*1933 N103
*1934 n2800
*1935 n517
*1936 N102
*1937 n516
*1938 N101
*1939 n515
*1940 n281
*1941 N100
*1942 n233
*1943 n232
*1944 n230
*1945 n532
*1946 n528
*1947 n231
*1948 n2770
*1949 n533
*1950 n264
*1951 n305
*1952 n531
*1953 n308
*1954 n419
*1955 U441
*1956 reg_b\[23\]
*1957 n418
*1958 n417